porphin
     RDKit          3D
from ChEBI_8337.sdf scaled up by 1.7
 24 28  0  0  0  0  0  0  0  0999 V2000
   -2.8028    1.2063    0.0000 C   0  0  0  0  0  0  0  0  0  0  0  0
   -3.4415    2.4835    0.0000 C   0  0  0  0  0  0  0  0  0  0  0  0
   -2.4480    3.4770    0.0000 C   0  0  0  0  0  0  0  0  0  0  0  0
   -1.2063    2.8383    0.0000 C   0  0  0  0  0  0  0  0  0  0  0  0
    0.0000    3.5479    0.0000 C   0  0  0  0  0  0  0  0  0  0  0  0
    1.2419    2.8383    0.0000 C   0  0  0  0  0  0  0  0  0  0  0  0
    2.4837    3.4770    0.0000 C   0  0  0  0  0  0  0  0  0  0  0  0
    3.5125    2.4835    0.0000 C   0  0  0  0  0  0  0  0  0  0  0  0
    2.8383    1.2063    0.0000 C   0  0  0  0  0  0  0  0  0  0  0  0
    3.5481    0.0000    0.0000 C   0  0  0  0  0  0  0  0  0  0  0  0
    2.8383   -1.2063    0.0000 C   0  0  0  0  0  0  0  0  0  0  0  0
    3.5125   -2.4835    0.0000 C   0  0  0  0  0  0  0  0  0  0  0  0
    2.4837   -3.4770    0.0000 C   0  0  0  0  0  0  0  0  0  0  0  0
    1.2419   -2.8385    0.0000 C   0  0  0  0  0  0  0  0  0  0  0  0
    0.0000   -3.5481    0.0000 C   0  0  0  0  0  0  0  0  0  0  0  0
   -1.2063   -2.8385    0.0000 C   0  0  0  0  0  0  0  0  0  0  0  0
   -2.4480   -3.4770    0.0000 C   0  0  0  0  0  0  0  0  0  0  0  0
   -3.4415   -2.4835    0.0000 C   0  0  0  0  0  0  0  0  0  0  0  0
   -2.8028   -1.2063    0.0000 C   0  0  0  0  0  0  0  0  0  0  0  0
   -3.5124    0.0000    0.0000 C   0  0  0  0  0  0  0  0  0  0  0  0
   -1.4192    1.4547    0.0000 N   0  0  0  0  0  0  0  0  0  0  0  0
    1.4547    1.4547    0.0000 N   0  0  0  0  0  0  0  0  0  0  0  0
    1.4547   -1.4547    0.0000 N   0  0  0  0  0  0  0  0  0  0  0  0
   -1.4192   -1.4547    0.0000 N   0  0  0  0  0  0  0  0  0  0  0  0
 14 15  2  0
 16 15  1  0
 13 14  1  0
 23 14  1  0
 24 16  2  0
 17 16  1  0
 11 23  1  0
 12 13  2  0
 11 12  1  0
 10 11  2  0
  9 10  1  0
 22  9  2  0
  8  9  1  0
  6 22  1  0
  7  8  2  0
  7  6  1  0
  5  6  2  0
  4  5  1  0
 21  4  1  0
  3  4  2  0
  1 21  1  0
  2  1  2  0
 20  1  1  0
  3  2  1  0
 19 20  2  0
 24 19  1  0
 18 19  1  0
 18 17  2  0
M  END
$$$$